/*--------------------------------*- C++ -*----------------------------------*\
  =========                 |
  \\      /  F ield         | OpenFOAM: The Open Source CFD Toolbox
   \\    /   O peration     | Website:  https://openfoam.org
    \\  /    A nd           | Version:  7
     \\/     M anipulation  |
\*---------------------------------------------------------------------------*/
FoamFile
{
    version     2.0;
    format      ascii;
    class       extendedFeatureEdgeMesh;
    location    "constant/extendedFeatureEdgeMesh";
    object      cylinder.extendedFeatureEdgeMesh;
}
// * * * * * * * * * * * * * * * * * * * * * * * * * * * * * * * * * * * * * //

// points

55
(
(-5.82565e-05 -1.43589e-05 0)
(-6e-05 0 0)
(-5.31274e-05 -2.78834e-05 0)
(-4.49106e-05 -3.97874e-05 0)
(-3.40839e-05 -4.9379e-05 0)
(-2.12763e-05 -5.6101e-05 0)
(-7.2322e-06 -5.95625e-05 0)
(7.2322e-06 -5.95625e-05 0)
(2.12763e-05 -5.6101e-05 0)
(3.40839e-05 -4.9379e-05 0)
(4.49106e-05 -3.97874e-05 0)
(5.31274e-05 -2.78834e-05 0)
(5.82565e-05 -1.43589e-05 0)
(6e-05 -6.06386e-20 0)
(5.82565e-05 1.43589e-05 0)
(5.31274e-05 2.78834e-05 0)
(4.49106e-05 3.97874e-05 0)
(3.40839e-05 4.9379e-05 0)
(2.12763e-05 5.6101e-05 0)
(7.2322e-06 5.95625e-05 0)
(-7.2322e-06 5.95625e-05 0)
(-2.12763e-05 5.6101e-05 0)
(-3.40839e-05 4.9379e-05 0)
(-4.49106e-05 3.97874e-05 0)
(-5.31274e-05 2.78834e-05 0)
(-5.82565e-05 1.43589e-05 0)
(-6e-05 0 0.001)
(-5.82565e-05 -1.43589e-05 0.001)
(-5.31274e-05 -2.78834e-05 0.001)
(-4.49106e-05 -3.97874e-05 0.001)
(-3.40839e-05 -4.9379e-05 0.001)
(-2.12763e-05 -5.6101e-05 0.001)
(-7.2322e-06 -5.95625e-05 0.001)
(7.2322e-06 -5.95625e-05 0.001)
(2.12763e-05 -5.6101e-05 0.001)
(3.40839e-05 -4.9379e-05 0.001)
(4.49106e-05 -3.97874e-05 0.001)
(5.31274e-05 -2.78834e-05 0.001)
(5.82565e-05 -1.43589e-05 0.001)
(6e-05 -6.06386e-20 0.001)
(5.82565e-05 1.43589e-05 0.001)
(5.31274e-05 2.78834e-05 0.001)
(4.49106e-05 3.97874e-05 0.001)
(3.40839e-05 4.9379e-05 0.001)
(2.12763e-05 5.6101e-05 0.001)
(7.2322e-06 5.95625e-05 0.001)
(-7.2322e-06 5.95625e-05 0.001)
(-2.12763e-05 5.6101e-05 0.001)
(-3.40839e-05 4.9379e-05 0.001)
(-4.49106e-05 3.97874e-05 0.001)
(-5.31274e-05 2.78834e-05 0.001)
(-5.82565e-05 1.43589e-05 0.001)
(-3.6e-05 -2.21072e-20 0.0005)
(-4.2e-05 -7.96423e-21 0.000375)
(-4.2e-05 -7.96423e-21 0.000625)
)

// edges

54
(
(0 1)
(2 0)
(3 2)
(4 3)
(5 4)
(6 5)
(7 6)
(8 7)
(9 8)
(10 9)
(11 10)
(12 11)
(13 12)
(14 13)
(15 14)
(16 15)
(17 16)
(18 17)
(19 18)
(20 19)
(21 20)
(22 21)
(23 22)
(24 23)
(25 24)
(1 25)
(26 27)
(27 28)
(28 29)
(29 30)
(30 31)
(31 32)
(32 33)
(33 34)
(34 35)
(35 36)
(36 37)
(37 38)
(38 39)
(39 40)
(40 41)
(41 42)
(42 43)
(43 44)
(44 45)
(45 46)
(46 47)
(47 48)
(48 49)
(49 50)
(50 51)
(51 26)
(52 53)
(54 52)
)

// concaveStart mixedStart nonFeatureStart
0 0 0
// internalStart flatStart openStart multipleStart
54 54 54 54
// normals

104
(
(0 0 -1)
(-0.992709 -0.120536 -0)
(0 0 -1)
(-0.935016 -0.354605 -0)
(0 -0 -1)
(-0.822984 -0.568065 -0)
(0 0 -1)
(-0.663123 -0.748511 -0)
(0 0 -1)
(-0.464723 -0.885456 -0)
(0 0 -1)
(-0.239316 -0.970942 -0)
(0 0 -1)
(0 -1 -0)
(0 0 -1)
(0.239316 -0.970942 0)
(0 0 -1)
(0.464723 -0.885456 0)
(0 0 -1)
(0.663123 -0.748511 0)
(0 0 -1)
(0.822984 -0.568065 0)
(0 0 -1)
(0.935016 -0.354605 0)
(0 0 -1)
(0.992709 -0.120536 0)
(0 0 -1)
(0.992709 0.120536 0)
(0 0 -1)
(0.935016 0.354605 0)
(0 0 -1)
(0.822984 0.568065 0)
(0 0 -1)
(0.663123 0.748511 0)
(0 0 -1)
(0.464723 0.885456 0)
(0 0 -1)
(0.239316 0.970942 0)
(0 0 -1)
(0 1 0)
(0 0 -1)
(-0.239316 0.970942 0)
(0 0 -1)
(-0.464723 0.885456 0)
(-0.663123 0.748511 0)
(0 0 -1)
(-0.822984 0.568065 0)
(-0.935016 0.354605 0)
(0 0 -1)
(-0.992709 0.120536 -1.66169e-17)
(0 0 1)
(-0.992709 -0.120536 -1.60839e-17)
(0 0 1)
(-0.935016 -0.354605 0)
(0 0 1)
(-0.822984 -0.568065 0)
(0 0 1)
(-0.663123 -0.748511 0)
(0 0 1)
(-0.464723 -0.885456 0)
(0 0 1)
(-0.239316 -0.970942 0)
(0 0 1)
(-0 -1 0)
(0 0 1)
(0.239316 -0.970942 0)
(0 0 1)
(0.464723 -0.885456 0)
(0 0 1)
(0.663123 -0.748511 0)
(0 0 1)
(0.822984 -0.568065 0)
(0 0 1)
(0.935016 -0.354605 0)
(0 0 1)
(0.992709 -0.120536 0)
(0 0 1)
(0.992709 0.120536 0)
(0 0 1)
(0.935016 0.354605 0)
(-0 0 1)
(0.822984 0.568065 0)
(0 0 1)
(0.663123 0.748511 0)
(0 0 1)
(0.464723 0.885456 0)
(0 0 1)
(0.239316 0.970942 0)
(0 0 1)
(-0 1 0)
(0 0 1)
(-0.239316 0.970942 0)
(0 0 1)
(-0.464723 0.885456 0)
(-0.663123 0.748511 0)
(0 0 1)
(-0.822984 0.568065 0)
(-0.935016 0.354605 0)
(0 0 1)
(-0.992709 0.120536 0)
(-0.96104 -0.272534 0.0461299)
(-0.961276 0.271698 0.0461412)
(-0.96104 -0.272534 -0.0461299)
(-0.961276 0.271698 -0.0461412)
)

// normal volume types

104
(
0
0
0
0
0
0
0
0
0
0
0
0
0
0
0
0
0
0
0
0
0
0
0
0
0
0
0
0
0
0
0
0
0
0
0
0
0
0
0
0
0
0
0
0
0
0
0
0
0
0
0
0
0
0
0
0
0
0
0
0
0
0
0
0
0
0
0
0
0
0
0
0
0
0
0
0
0
0
0
0
0
0
0
0
0
0
0
0
0
0
0
0
0
0
0
0
0
0
0
0
0
0
0
0
)

// normalDirections

54
(
2(1 -1)
2(1 -1)
2(1 -1)
2(1 -1)
2(1 -1)
2(1 -1)
2(1 -1)
2(1 -1)
2(1 -1)
2(1 -1)
2(1 -1)
2(1 -1)
2(1 -1)
2(1 -1)
2(1 -1)
2(1 -1)
2(1 -1)
2(1 -1)
2(1 -1)
2(1 -1)
2(1 -1)
2(1 -1)
2(1 -1)
2(1 -1)
2(1 -1)
2(1 -1)
2(1 -1)
2(1 -1)
2(1 -1)
2(1 -1)
2(1 -1)
2(1 -1)
2(1 -1)
2(1 -1)
2(1 -1)
2(1 -1)
2(1 -1)
2(1 -1)
2(1 -1)
2(1 -1)
2(1 -1)
2(1 -1)
2(1 -1)
2(1 -1)
2(1 -1)
2(1 -1)
2(1 -1)
2(1 -1)
2(1 -1)
2(1 -1)
2(1 -1)
2(1 -1)
2(1 -1)
2(1 -1)
)

// edgeNormals

54
(
2(0 1)
2(2 3)
2(4 5)
2(6 7)
2(8 9)
2(10 11)
2(12 13)
2(14 15)
2(16 17)
2(18 19)
2(20 21)
2(22 23)
2(24 25)
2(26 27)
2(28 29)
2(30 31)
2(32 33)
2(34 35)
2(36 37)
2(38 39)
2(40 41)
2(42 43)
2(42 44)
2(45 46)
2(45 47)
2(48 49)
2(50 51)
2(52 53)
2(54 55)
2(56 57)
2(58 59)
2(60 61)
2(62 63)
2(64 65)
2(66 67)
2(68 69)
2(70 71)
2(72 73)
2(74 75)
2(76 77)
2(78 79)
2(80 81)
2(82 83)
2(84 85)
2(86 87)
2(88 89)
2(90 91)
2(92 93)
2(92 94)
2(95 96)
2(95 97)
2(98 99)
2(100 101)
2(102 103)
)

// featurePointNormals
0()
// featurePointEdges
0()
// regionEdges

52
(
0
1
2
3
4
5
6
7
8
9
10
11
12
13
14
15
16
17
18
19
20
21
22
23
24
25
26
27
28
29
30
31
32
33
34
35
36
37
38
39
40
41
42
43
44
45
46
47
48
49
50
51
)



// ************************************************************************* //
