/*--------------------------------*- C++ -*----------------------------------*\
  =========                 |
  \\      /  F ield         | OpenFOAM: The Open Source CFD Toolbox
   \\    /   O peration     | Website:  https://openfoam.org
    \\  /    A nd           | Version:  7
     \\/     M anipulation  |
\*---------------------------------------------------------------------------*/
FoamFile
{
    version     2.0;
    format      ascii;
    class       featureEdgeMesh;
    location    "constant/triSurface";
    object      cylinder.eMesh;
}
// * * * * * * * * * * * * * * * * * * * * * * * * * * * * * * * * * * * * * //


// points:

57
(
(-2.91283e-05 -7.17947e-06 0)
(-3e-05 0 0)
(-2.65637e-05 -1.39417e-05 0)
(-2.24553e-05 -1.98937e-05 0)
(-1.70419e-05 -2.46895e-05 0)
(-1.06382e-05 -2.80505e-05 0)
(-3.6161e-06 -2.97813e-05 0)
(3.6161e-06 -2.97813e-05 0)
(1.06382e-05 -2.80505e-05 0)
(1.70419e-05 -2.46895e-05 0)
(2.24553e-05 -1.98937e-05 0)
(2.65637e-05 -1.39417e-05 0)
(2.91283e-05 -7.17947e-06 0)
(3e-05 -3.03193e-20 0)
(2.91283e-05 7.17947e-06 0)
(2.65637e-05 1.39417e-05 0)
(2.24553e-05 1.98937e-05 0)
(1.70419e-05 2.46895e-05 0)
(1.06382e-05 2.80505e-05 0)
(3.6161e-06 2.97813e-05 0)
(-3.6161e-06 2.97813e-05 0)
(-1.06382e-05 2.80505e-05 0)
(-1.70419e-05 2.46895e-05 0)
(-2.24553e-05 1.98937e-05 0)
(-2.65637e-05 1.39417e-05 0)
(-2.91283e-05 7.17947e-06 0)
(-3e-05 0 0.0005)
(-2.91283e-05 -7.17947e-06 0.0005)
(-2.65637e-05 -1.39417e-05 0.0005)
(-2.24553e-05 -1.98937e-05 0.0005)
(-1.70419e-05 -2.46895e-05 0.0005)
(-1.06382e-05 -2.80505e-05 0.0005)
(-3.6161e-06 -2.97813e-05 0.0005)
(3.6161e-06 -2.97813e-05 0.0005)
(1.06382e-05 -2.80505e-05 0.0005)
(1.70419e-05 -2.46895e-05 0.0005)
(2.24553e-05 -1.98937e-05 0.0005)
(2.65637e-05 -1.39417e-05 0.0005)
(2.91283e-05 -7.17947e-06 0.0005)
(3e-05 -3.03193e-20 0.0005)
(2.91283e-05 7.17947e-06 0.0005)
(2.65637e-05 1.39417e-05 0.0005)
(2.24553e-05 1.98937e-05 0.0005)
(1.70419e-05 2.46895e-05 0.0005)
(1.06382e-05 2.80505e-05 0.0005)
(3.6161e-06 2.97813e-05 0.0005)
(-3.6161e-06 2.97813e-05 0.0005)
(-1.06382e-05 2.80505e-05 0.0005)
(-1.70419e-05 2.46895e-05 0.0005)
(-2.24553e-05 1.98937e-05 0.0005)
(-2.65637e-05 1.39417e-05 0.0005)
(-2.91283e-05 7.17947e-06 0.0005)
(5.68597e-08 2.50682e-05 0.000156)
(6.06907e-06 2.433e-05 0.000156)
(-1.5e-05 8.81148e-21 0.00025)
(-2e-05 1.75971e-21 0.000187)
(-2e-05 1.75971e-21 0.000312)
)


// edges:

55
(
(0 1)
(2 0)
(3 2)
(4 3)
(5 4)
(6 5)
(7 6)
(8 7)
(9 8)
(10 9)
(11 10)
(12 11)
(13 12)
(14 13)
(15 14)
(16 15)
(17 16)
(18 17)
(19 18)
(20 19)
(21 20)
(22 21)
(23 22)
(24 23)
(25 24)
(1 25)
(26 27)
(27 28)
(28 29)
(29 30)
(30 31)
(31 32)
(32 33)
(33 34)
(34 35)
(35 36)
(36 37)
(37 38)
(38 39)
(39 40)
(40 41)
(41 42)
(42 43)
(43 44)
(44 45)
(45 46)
(46 47)
(47 48)
(48 49)
(49 50)
(50 51)
(51 26)
(52 53)
(54 55)
(56 54)
)

// * * * * * * * * * * * * * * * * * * * * * * * * * * * * * * * * * * * * * //


// ************************************************************************* //
