/*--------------------------------*- C++ -*----------------------------------*\
  =========                 |
  \\      /  F ield         | OpenFOAM: The Open Source CFD Toolbox
   \\    /   O peration     | Website:  https://openfoam.org
    \\  /    A nd           | Version:  7
     \\/     M anipulation  |
\*---------------------------------------------------------------------------*/
FoamFile
{
    version     2.0;
    format      ascii;
    class       extendedFeatureEdgeMesh;
    location    "constant/extendedFeatureEdgeMesh";
    object      cylinder.extendedFeatureEdgeMesh;
}
// * * * * * * * * * * * * * * * * * * * * * * * * * * * * * * * * * * * * * //

// points

57
(
(-2.91283e-05 -7.17947e-06 0)
(-3e-05 0 0)
(-2.65637e-05 -1.39417e-05 0)
(-2.24553e-05 -1.98937e-05 0)
(-1.70419e-05 -2.46895e-05 0)
(-1.06382e-05 -2.80505e-05 0)
(-3.6161e-06 -2.97813e-05 0)
(3.6161e-06 -2.97813e-05 0)
(1.06382e-05 -2.80505e-05 0)
(1.70419e-05 -2.46895e-05 0)
(2.24553e-05 -1.98937e-05 0)
(2.65637e-05 -1.39417e-05 0)
(2.91283e-05 -7.17947e-06 0)
(3e-05 -3.03193e-20 0)
(2.91283e-05 7.17947e-06 0)
(2.65637e-05 1.39417e-05 0)
(2.24553e-05 1.98937e-05 0)
(1.70419e-05 2.46895e-05 0)
(1.06382e-05 2.80505e-05 0)
(3.6161e-06 2.97813e-05 0)
(-3.6161e-06 2.97813e-05 0)
(-1.06382e-05 2.80505e-05 0)
(-1.70419e-05 2.46895e-05 0)
(-2.24553e-05 1.98937e-05 0)
(-2.65637e-05 1.39417e-05 0)
(-2.91283e-05 7.17947e-06 0)
(-3e-05 0 0.0005)
(-2.91283e-05 -7.17947e-06 0.0005)
(-2.65637e-05 -1.39417e-05 0.0005)
(-2.24553e-05 -1.98937e-05 0.0005)
(-1.70419e-05 -2.46895e-05 0.0005)
(-1.06382e-05 -2.80505e-05 0.0005)
(-3.6161e-06 -2.97813e-05 0.0005)
(3.6161e-06 -2.97813e-05 0.0005)
(1.06382e-05 -2.80505e-05 0.0005)
(1.70419e-05 -2.46895e-05 0.0005)
(2.24553e-05 -1.98937e-05 0.0005)
(2.65637e-05 -1.39417e-05 0.0005)
(2.91283e-05 -7.17947e-06 0.0005)
(3e-05 -3.03193e-20 0.0005)
(2.91283e-05 7.17947e-06 0.0005)
(2.65637e-05 1.39417e-05 0.0005)
(2.24553e-05 1.98937e-05 0.0005)
(1.70419e-05 2.46895e-05 0.0005)
(1.06382e-05 2.80505e-05 0.0005)
(3.6161e-06 2.97813e-05 0.0005)
(-3.6161e-06 2.97813e-05 0.0005)
(-1.06382e-05 2.80505e-05 0.0005)
(-1.70419e-05 2.46895e-05 0.0005)
(-2.24553e-05 1.98937e-05 0.0005)
(-2.65637e-05 1.39417e-05 0.0005)
(-2.91283e-05 7.17947e-06 0.0005)
(5.68597e-08 2.50682e-05 0.000156)
(6.06907e-06 2.433e-05 0.000156)
(-1.5e-05 8.81148e-21 0.00025)
(-2e-05 1.75971e-21 0.000187)
(-2e-05 1.75971e-21 0.000312)
)

// edges

55
(
(0 1)
(2 0)
(3 2)
(4 3)
(5 4)
(6 5)
(7 6)
(8 7)
(9 8)
(10 9)
(11 10)
(12 11)
(13 12)
(14 13)
(15 14)
(16 15)
(17 16)
(18 17)
(19 18)
(20 19)
(21 20)
(22 21)
(23 22)
(24 23)
(25 24)
(1 25)
(26 27)
(27 28)
(28 29)
(29 30)
(30 31)
(31 32)
(32 33)
(33 34)
(34 35)
(35 36)
(36 37)
(37 38)
(38 39)
(39 40)
(40 41)
(41 42)
(42 43)
(43 44)
(44 45)
(45 46)
(46 47)
(47 48)
(48 49)
(49 50)
(50 51)
(51 26)
(52 53)
(54 55)
(56 54)
)

// concaveStart mixedStart nonFeatureStart
0 0 0
// internalStart flatStart openStart multipleStart
55 55 55 55
// normals

106
(
(0 0 -1)
(-0.992709 -0.120537 -0)
(0 0 -1)
(-0.935017 -0.354604 -0)
(0 -0 -1)
(-0.822984 -0.568065 -0)
(0 0 -1)
(-0.663123 -0.74851 -0)
(0 0 -1)
(-0.464723 -0.885456 -0)
(0 0 -1)
(-0.239316 -0.970942 -0)
(0 0 -1)
(0 -1 -0)
(0 0 -1)
(0.239316 -0.970942 0)
(0 0 -1)
(0.464723 -0.885456 0)
(0 0 -1)
(0.663123 -0.74851 0)
(0 0 -1)
(0.822984 -0.568065 0)
(0 0 -1)
(0.935017 -0.354604 0)
(0 0 -1)
(0.992709 -0.120537 0)
(0 0 -1)
(0.992709 0.120537 0)
(0 0 -1)
(0.935017 0.354604 0)
(0 0 -1)
(0.822984 0.568065 0)
(0 0 -1)
(0.663123 0.74851 0)
(0 0 -1)
(0.464723 0.885456 0)
(0 0 -1)
(0.239316 0.970942 0)
(0 0 -1)
(0 1 0)
(0 0 -1)
(-0.239316 0.970942 0)
(0 0 -1)
(-0.464723 0.885456 0)
(-0.663123 0.74851 0)
(0 0 -1)
(-0.822984 0.568065 0)
(-0.935017 0.354604 0)
(0 0 -1)
(-0.992709 0.120537 -1.6617e-17)
(0 0 1)
(-0.992709 -0.120537 0.000380965)
(0 0 1)
(-0.935016 -0.354604 0.000683255)
(0 0 1)
(-0.822983 -0.568065 0.000851324)
(0 0 1)
(-0.663123 -0.74851 0.00106633)
(0 0 1)
(-0.464723 -0.885455 0.00128993)
(0 0 1)
(-0.239315 -0.970941 0.00146778)
(0 0 1)
(0 -0.999999 0.00157104)
(0 0 1)
(0.239315 -0.970941 0.00161)
(0 0 1)
(0.464723 -0.885455 0.00161971)
(0 0 1)
(0.663122 -0.748509 0.00163452)
(0 0 1)
(0.822982 -0.568064 0.00166758)
(0 0 1)
(0.935015 -0.354604 0.00170789)
(0 0 1)
(0.992707 -0.120537 0.00173101)
(0 0 1)
(0.992707 0.120537 0.00171806)
(0 0 1)
(0.935015 0.354604 0.00166869)
(-0 0 1)
(0.822982 0.568065 0.00160129)
(0 0 1)
(0.663122 0.74851 0.00154039)
(0 0 1)
(0.464723 0.885455 0.00149801)
(0 0 1)
(0.239315 0.970941 0.00146194)
(0 0 1)
(-0 0.999999 0.00139841)
(0 0 1)
(-0.239315 0.970941 0.0012719)
(0 0 1)
(-0.464723 0.885455 0.00107056)
(-0.663123 0.74851 0.000821553)
(0 0 1)
(-0.822983 0.568065 0.000578397)
(-0.935016 0.354604 0.000381003)
(0 0 1)
(-0.992709 0.120537 0.000211028)
(0.120482 0.981253 -0.150422)
(0.112048 0.912562 0.393288)
(-0.880055 -0.469707 0.0698456)
(-0.918719 0.388121 0.0729142)
(-0.887368 -0.455473 -0.071562)
(-0.923085 0.377322 -0.0744424)
)

// normal volume types

106
(
0
0
0
0
0
0
0
0
0
0
0
0
0
0
0
0
0
0
0
0
0
0
0
0
0
0
0
0
0
0
0
0
0
0
0
0
0
0
0
0
0
0
0
0
0
0
0
0
0
0
0
0
0
0
0
0
0
0
0
0
0
0
0
0
0
0
0
0
0
0
0
0
0
0
0
0
0
0
0
0
0
0
0
0
0
0
0
0
0
0
0
0
0
0
0
0
0
0
0
0
0
0
0
0
0
0
)

// normalDirections

55
(
2(1 -1)
2(1 -1)
2(1 -1)
2(1 -1)
2(1 -1)
2(1 -1)
2(1 -1)
2(1 -1)
2(1 -1)
2(1 -1)
2(1 -1)
2(1 -1)
2(1 -1)
2(1 -1)
2(1 -1)
2(1 -1)
2(1 -1)
2(1 -1)
2(1 -1)
2(1 -1)
2(1 -1)
2(1 -1)
2(1 -1)
2(1 -1)
2(1 -1)
2(1 -1)
2(1 -1)
2(1 -1)
2(1 -1)
2(1 -1)
2(1 -1)
2(1 -1)
2(1 -1)
2(1 -1)
2(1 -1)
2(1 -1)
2(1 -1)
2(1 -1)
2(1 -1)
2(1 -1)
2(1 -1)
2(1 -1)
2(1 -1)
2(1 -1)
2(1 -1)
2(1 -1)
2(1 -1)
2(1 -1)
2(1 -1)
2(1 -1)
2(1 -1)
2(1 -1)
2(1 -1)
2(1 -1)
2(1 -1)
)

// edgeNormals

55
(
2(0 1)
2(2 3)
2(4 5)
2(6 7)
2(8 9)
2(10 11)
2(12 13)
2(14 15)
2(16 17)
2(18 19)
2(20 21)
2(22 23)
2(24 25)
2(26 27)
2(28 29)
2(30 31)
2(32 33)
2(34 35)
2(36 37)
2(38 39)
2(40 41)
2(42 43)
2(42 44)
2(45 46)
2(45 47)
2(48 49)
2(50 51)
2(52 53)
2(54 55)
2(56 57)
2(58 59)
2(60 61)
2(62 63)
2(64 65)
2(66 67)
2(68 69)
2(70 71)
2(72 73)
2(74 75)
2(76 77)
2(78 79)
2(80 81)
2(82 83)
2(84 85)
2(86 87)
2(88 89)
2(90 91)
2(92 93)
2(92 94)
2(95 96)
2(95 97)
2(98 99)
2(100 101)
2(102 103)
2(104 105)
)

// featurePointNormals
0()
// featurePointEdges
0()
// regionEdges

52
(
0
1
2
3
4
5
6
7
8
9
10
11
12
13
14
15
16
17
18
19
20
21
22
23
24
25
26
27
28
29
30
31
32
33
34
35
36
37
38
39
40
41
42
43
44
45
46
47
48
49
50
51
)



// ************************************************************************* //
