/*--------------------------------*- C++ -*----------------------------------*\
| =========                 |                                                 |
| \\      /  F ield         | OpenFOAM: The Open Source CFD Toolbox           |
|  \\    /   O peration     | Version:  v1812                                 |
|   \\  /    A nd           | Web:      www.OpenFOAM.com                      |
|    \\/     M anipulation  |                                                 |
\*---------------------------------------------------------------------------*/
FoamFile
{
    version     2.0;
    format      ascii;
    class       dictionary;
    object      blockMeshDict;
}
// * * * * * * * * * * * * * * * * * * * * * * * * * * * * * * * * * * * * * //

scale   1.e-6;

vertices
(
    (-66 -66 -50)
    (66 -66 -50)
    (66 66 -50)
    (-66 66 -50)
    (-66 -66 1050)
    (66 -66 1050)
    (66 66 1050)
    (-66 66 1050)
);

blocks
(
    hex (0 1 2 3 4 5 6 7) (44 44 400) simpleGrading (1 1 1)
);

edges
(
);

boundary
(
    inlet
    {
        type wall;
        faces
        (
            (0 3 2 1)
        );
    }
    wall
    {
        type wall;
        faces
        (
            (0 4 7 3)
            (1 5 4 0)
            (6 7 3 2)
	    (2 6 5 1)
        );
    }
    outlet
    {
        type wall;
        faces
        (
            (4 7 6 5)
        );
    }
);

mergePatchPairs
(
);

// ************************************************************************* //
