/*--------------------------------*- C++ -*----------------------------------*\
  =========                 |
  \\      /  F ield         | OpenFOAM: The Open Source CFD Toolbox
   \\    /   O peration     | Website:  https://openfoam.org
    \\  /    A nd           | Version:  7
     \\/     M anipulation  |
\*---------------------------------------------------------------------------*/
FoamFile
{
    version     2.0;
    format      ascii;
    class       polyBoundaryMesh;
    location    "0.02/polyMesh";
    object      boundary;
}
// * * * * * * * * * * * * * * * * * * * * * * * * * * * * * * * * * * * * * //

3
(
    inlet
    {
        type            wall;
        inGroups        List<word> 1(wall);
        nFaces          1600;
        startFace       1803318;
    }
    wall
    {
        type            wall;
        inGroups        List<word> 1(wall);
        nFaces          141374;
        startFace       1804918;
    }
    outlet
    {
        type            wall;
        inGroups        List<word> 1(wall);
        nFaces          4996;
        startFace       1946292;
    }
)

// ************************************************************************* //
