/*--------------------------------*- C++ -*----------------------------------*\
| =========                 |                                                 |
| \\      /  F ield         | OpenFOAM: The Open Source CFD Toolbox           |
|  \\    /   O peration     | Version:  v1812                                 |
|   \\  /    A nd           | Web:      www.OpenFOAM.com                      |
|    \\/     M anipulation  |                                                 |
\*---------------------------------------------------------------------------*/
FoamFile
{
    version     2.0;
    format      ascii;
    class       dictionary;
    location    "constant";
    object      transportProperties;
}
// * * * * * * * * * * * * * * * * * * * * * * * * * * * * * * * * * * * * * //

adpD              adpD [ 0 2 -1 0 0 0 0 ]  2.37e-10;

txa2D	          txa2D [ 0 2 -1 0 0 0 0 ] 2.14e-10;

thrombinD	      thrombinD [ 0 2 -1 0 0 0 0 ] 4.21e-11;

// ************************************************************************* //
